@<TRIPOS>MOLECULE
imd
    9     9     1     0     0
SMALL
resp


@<TRIPOS>ATOM
      1 C1          -0.6710     0.9300     0.0000 CC         1 imd     -0.026600
      2 C2          -1.1070    -0.3480     0.0000 CV         1 imd      0.129200
      3 C3           1.0060    -0.4710    -0.0000 CR         1 imd      0.205700
      4 N4           0.6980     0.8430    -0.0000 NA         1 imd     -0.381100
      5 H5           1.3420     1.6000    -0.0000 H          1 imd      0.364900
      6 H6          -1.1850     1.8660     0.0000 H4         1 imd      0.0267 
      7 H7          -2.1160    -0.7020     0.0000 H4         1 imd      0.114700
      8 H8           2.0180    -0.8200    -0.0000 H5         1 imd      0.139200
      9 N9          -0.0450    -1.2170    -0.0000 NB         1 imd     -0.572700
@<TRIPOS>BOND
     1     1     2 2   
     2     1     4 1   
     3     1     6 1   
     4     2     7 1   
     5     2     9 1   
     6     3     4 1   
     7     3     8 1   
     8     3     9 2   
     9     4     5 1   
@<TRIPOS>SUBSTRUCTURE
     1 imd        1 TEMP              0 ****  ****    0 ROOT


